!----------------------------------------------------------------------------------
! Users should add all user specific namelist changes below in the form of 
!   namelist_var = new_namelist_value 
! Note - that it does not matter what namelist group the namelist_var belongs to
!----------------------------------------------------------------------------------
ndtd = 2
histfreq = 'd',
histfreq_n = 1,
f_aice = "d",
f_hi = "d",
f_hs = "d",
f_tsfc = "d",
f_uvel = "d",
f_vvel = "d",
f_strairx = "d",
f_strairy = "d"
